Input Parameters:
   integrator                     = md
   tinit                          = 0
   dt                             = 0.0005
   nsteps                         = 3000
   init-step                      = 0
   simulation-part                = 1
   mts                            = false
   comm-mode                      = Linear
   nstcomm                        = 100000
   bd-fric                        = 0
   ld-seed                        = -1610727553
   emtol                          = 10
   emstep                         = 0.01
   niter                          = 20
   fcstep                         = 0
   nstcgsteep                     = 1000
   nbfgscorr                      = 10
   rtpi                           = 0.05
   nstxout                        = 500
   nstvout                        = 0
   nstfout                        = 0
   nstlog                         = 100
   nstcalcenergy                  = 100
   nstenergy                      = 500
   nstxout-compressed             = 0
   compressed-x-precision         = 1000
   cutoff-scheme                  = Verlet
   nstlist                        = 10
   pbc                            = xyz
   periodic-molecules             = true
   verlet-buffer-tolerance        = 0.001
   rlist                          = 2.01
   coulombtype                    = Reaction-Field
   coulomb-modifier               = Potential-shift
   rcoulomb-switch                = 0
   rcoulomb                       = 2
   epsilon-r                      = 1
   epsilon-rf                     = inf
   vdw-type                       = Cut-off
   vdw-modifier                   = Potential-shift
   rvdw-switch                    = 0
   rvdw                           = 2
   DispCorr                       = EnerPres
   table-extension                = 1
   fourierspacing                 = 0.24
   fourier-nx                     = 0
   fourier-ny                     = 0
   fourier-nz                     = 0
   pme-order                      = 4
   ewald-rtol                     = 0.001
   ewald-rtol-lj                  = 0.001
   lj-pme-comb-rule               = Geometric
   ewald-geometry                 = 0
   epsilon-surface                = 0
   tcoupl                         = V-rescale
   nsttcouple                     = 10
   nh-chain-length                = 0
   print-nose-hoover-chain-variables = false
   pcoupl                         = Berendsen
   pcoupltype                     = Isotropic
   nstpcouple                     = 1
   tau-p                          = 1
   compressibility (3x3):
      compressibility[    0]={ 2.50000e-05,  0.00000e+00,  0.00000e+00}
      compressibility[    1]={ 0.00000e+00,  2.50000e-05,  0.00000e+00}
      compressibility[    2]={ 0.00000e+00,  0.00000e+00,  2.50000e-05}
   ref-p (3x3):
      ref-p[    0]={ 1.01325e+00,  0.00000e+00,  0.00000e+00}
      ref-p[    1]={ 0.00000e+00,  1.01325e+00,  0.00000e+00}
      ref-p[    2]={ 0.00000e+00,  0.00000e+00,  1.01325e+00}
   refcoord-scaling               = COM
   posres-com (3):
      posres-com[0]= 5.03177e-01
      posres-com[1]= 4.33421e-01
      posres-com[2]= 4.16235e-01
   posres-comB (3):
      posres-comB[0]= 5.03177e-01
      posres-comB[1]= 4.33421e-01
      posres-comB[2]= 4.16235e-01
   QMMM                           = false
qm-opts:
   ngQM                           = 0
   constraint-algorithm           = Lincs
   continuation                   = false
   Shake-SOR                      = false
   shake-tol                      = 0.0001
   lincs-order                    = 4
   lincs-iter                     = 1
   lincs-warnangle                = 30
   nwall                          = 0
   wall-type                      = 9-3
   wall-r-linpot                  = -1
   wall-atomtype[0]               = -1
   wall-atomtype[1]               = -1
   wall-density[0]                = 0
   wall-density[1]                = 0
   wall-ewald-zfac                = 3
   pull                           = false
   awh                            = false
   rotation                       = false
   interactiveMD                  = false
   disre                          = No
   disre-weighting                = Conservative
   disre-mixed                    = false
   dr-fc                          = 1000
   dr-tau                         = 0
   nstdisreout                    = 100
   orire-fc                       = 0
   orire-tau                      = 0
   nstorireout                    = 100
   free-energy                    = no
   cos-acceleration               = 0
   deform (3x3):
      deform[    0]={ 0.00000e+00,  0.00000e+00,  0.00000e+00}
      deform[    1]={ 0.00000e+00,  0.00000e+00,  0.00000e+00}
      deform[    2]={ 0.00000e+00,  0.00000e+00,  0.00000e+00}
   simulated-tempering            = false
   swapcoords                     = no
   userint1                       = 0
   userint2                       = 0
   userint3                       = 0
   userint4                       = 0
   userreal1                      = 0
   userreal2                      = 0
   userreal3                      = 0
   userreal4                      = 0
   applied-forces:
     electric-field:
       x:
         E0                       = 0
         omega                    = 0
         t0                       = 0
         sigma                    = 0
       y:
         E0                       = 0
         omega                    = 0
         t0                       = 0
         sigma                    = 0
       z:
         E0                       = 0
         omega                    = 0
         t0                       = 0
         sigma                    = 0
     density-guided-simulation:
       active                     = false
       group                      = protein
       similarity-measure         = inner-product
       atom-spreading-weight      = unity
       force-constant             = 1e+09
       gaussian-transform-spreading-width = 0.2
       gaussian-transform-spreading-range-in-multiples-of-width = 4
       reference-density-filename = reference.mrc
       nst                        = 1
       normalize-densities        = true
       adaptive-force-scaling     = false
       adaptive-force-scaling-time-constant = 4
       shift-vector               =
       transformation-matrix      =
grpopts:
   nrdf:      239225
   ref-t:         443
   tau-t:         0.1
annealing:          No
annealing-npoints:           0
   acc:	           0           0           0
   nfreeze:           N           N           N
   energygrp-flags[  0]: 0

Changing nstlist from 10 to 100, rlist from 2.01 to 2.203

Initializing Domain Decomposition on 32 ranks
Dynamic load balancing: auto
Minimum cell size due to atom displacement: 0.377 nm
NOTE: Periodic molecules are present in this system. Because of this, the domain decomposition algorithm cannot easily determine the minimum cell size that it requires for treating bonded interactions. Instead, domain decomposition will assume that half the non-bonded cut-off will be a suitable lower bound.
Minimum cell size due to bonded interactions: 1.102 nm
Maximum distance for 5 constraints, at 120 deg. angles, all-trans: 0.218 nm
Estimated maximum distance required for P-LINCS: 0.218 nm
Scaling the initial minimum size with 1/0.8 (option -dds) = 1.25
Optimizing the DD grid for 32 cells with a minimum initial size of 1.377 nm
The maximum allowed number of cells is: X 6 Y 6 Z 9
Domain decomposition grid 2 x 4 x 4, separate PME ranks 0
Domain decomposition rank 0, coordinates 0 0 0

The initial number of communication pulses is: X 1 Y 1 Z 1
The initial domain decomposition cell size is: X 4.51 nm Y 2.38 nm Z 3.23 nm

The maximum allowed distance for atoms involved in interactions is:
                 non-bonded interactions           2.203 nm
(the following are initial values, they could change due to box deformation)
            two-body bonded interactions  (-rdd)   2.203 nm
          multi-body bonded interactions  (-rdd)   2.203 nm
  atoms separated by up to 5 constraints  (-rcon)  2.382 nm

When dynamic load balancing gets turned on, these settings will change to:
The maximum number of communication pulses is: X 1 Y 2 Z 2
The minimum size for domain decomposition cells is 1.102 nm
The requested allowed shrink of DD cells (option -dds) is: 0.80
The allowed shrink of domain decomposition cells is: X 0.49 Y 0.46 Z 0.34
The maximum allowed distance for atoms involved in interactions is:
                 non-bonded interactions           2.203 nm
            two-body bonded interactions  (-rdd)   2.203 nm
          multi-body bonded interactions  (-rdd)   1.102 nm
  atoms separated by up to 5 constraints  (-rcon)  1.102 nm

Using 32 MPI threads

Non-default thread affinity set, disabling internal thread affinity

Using 1 OpenMP thread per tMPI thread

System total charge: 0.000
Reaction-Field:
epsRF = 0, rc = 2, krf = 0.0625, crf = 0.75, epsfac = 138.935
The electrostatics potential has its minimum at r = 2
Potential shift: LJ r^-12: -2.441e-04 r^-6: -1.562e-02
Generated table with 1601 data points for 1-4 COUL.
Tabscale = 500 points/nm
Generated table with 1601 data points for 1-4 LJ6.
Tabscale = 500 points/nm
Generated table with 1601 data points for 1-4 LJ12.
Tabscale = 500 points/nm
Long Range LJ corr.: <C6> 8.6554e-04

Using SIMD 4x8 nonbonded short-range kernels

Using a dual 4x8 pair-list setup updated with dynamic pruning:
  outer list: updated every 100 steps, buffer 0.203 nm, rlist 2.203 nm
  inner list: updated every   4 steps, buffer 0.003 nm, rlist 2.003 nm
At tolerance 0.001 kJ/mol/ps per atom, equivalent classical 1x1 list would be:
  outer list: updated every 100 steps, buffer 0.282 nm, rlist 2.282 nm
  inner list: updated every   4 steps, buffer 0.004 nm, rlist 2.004 nm

Using geometric Lennard-Jones combination rule

Initializing Parallel LINear Constraint Solver

The number of constraints is 49762
There are constraints between atoms in different decomposition domains,
will communicate selected coordinates each lincs iteration

Linking all bonded interactions to atoms

Intra-simulation communication will occur every 1 steps.

There are: 96330 Atoms
Atom distribution over 32 domains: av 3010 stddev 408 min 2149 max 3639

Constraining the starting coordinates (step 0)

Constraining the coordinates at t0-dt (step 0)
Center of mass motion removal mode is Linear
We have the following groups for center of mass motion removal:
  0:  rest
RMS relative constraint deviation after constraining: 3.76e-07
Initial temperature: 9.49004e-06 K

Started mdrun on rank 0 Tue Jun 11 11:09:39 2024

           Step           Time
              0        0.00000

   Energies (kJ/mol)
           Bond          Angle Ryckaert-Bell.          LJ-14     Coulomb-14
    1.33461e+05    3.03626e+05    1.34434e+04    9.76238e+03    1.59584e+02
        LJ (SR)  Disper. corr.   Coulomb (SR) Position Rest.      Potential
   -1.87358e+05   -3.78478e+03   -5.89235e+06    4.64837e+04   -5.57655e+06
    Kinetic En.   Total Energy  Conserved En.    Temperature Pres. DC (bar)
    6.16616e+02   -5.57594e+06   -5.57593e+06    6.20017e-01   -5.65810e+01
   -3.26611e+03    1.53081e-06

	<====  A V E R A G E S  ====>

	Statistics over 3001 steps using 31 frames

   Energies (kJ/mol)
           Bond          Angle Ryckaert-Bell.          LJ-14     Coulomb-14
    1.48374e+05    3.55600e+05    2.94410e+04    1.20811e+04    4.04062e+02
        LJ (SR)  Disper. corr.   Coulomb (SR) Position Rest.      Potential
   -1.75595e+05   -3.79802e+03   -5.89440e+06    2.08076e+05   -5.31982e+06
    Kinetic En.   Total Energy  Conserved En.    Temperature Pres. DC (bar)
    3.87104e+05   -4.93272e+06   -5.57267e+06    3.89239e+02   -5.69782e+01
 Pressure (bar)   Constr. rmsd
   -1.71550e+02    0.00000e+00

          Box-X          Box-Y          Box-Z
    9.01738e+00    9.51779e+00    1.28993e+01

   Total Virial (kJ/mol)
    1.89791e+05   -3.66334e+04    9.47540e+02
   -3.66333e+04    1.97662e+05    9.12718e+02
    9.47681e+02    9.12743e+02    1.69906e+04

   Pressure (bar)
   -1.41439e+03    3.35071e+03    1.03162e+03
    3.35071e+03   -2.18080e+03    8.23562e+02
    1.03161e+03    8.23562e+02    3.08054e+03
