Input Parameters:
   integrator                     = md
   tinit                          = 0
   dt                             = 0.0001
   nsteps                         = 10000
   init-step                      = 0
   simulation-part                = 1
   mts                            = false
   comm-mode                      = Linear
   nstcomm                        = 100000
   bd-fric                        = 0
   ld-seed                        = 1741683452
   emtol                          = 10
   emstep                         = 0.01
   niter                          = 20
   fcstep                         = 0
   nstcgsteep                     = 1000
   nbfgscorr                      = 10
   rtpi                           = 0.05
   nstxout                        = 10000
   nstvout                        = 0
   nstfout                        = 0
   nstlog                         = 2000
   nstcalcenergy                  = 100
   nstenergy                      = 2000
   nstxout-compressed             = 0
   compressed-x-precision         = 1000
   cutoff-scheme                  = Verlet
   nstlist                        = 10
   pbc                            = xyz
   periodic-molecules             = true
   verlet-buffer-tolerance        = 0.001
   rlist                          = 2.001
   coulombtype                    = PME
   coulomb-modifier               = Potential-shift
   rcoulomb-switch                = 0
   rcoulomb                       = 2
   epsilon-r                      = 1
   epsilon-rf                     = inf
   vdw-type                       = PME
   vdw-modifier                   = Potential-shift
   rvdw-switch                    = 0
   rvdw                           = 2
   DispCorr                       = EnerPres
   table-extension                = 1
   fourierspacing                 = 0.12
   fourier-nx                     = 80
   fourier-ny                     = 80
   fourier-nz                     = 120
   pme-order                      = 4
   ewald-rtol                     = 0.001
   ewald-rtol-lj                  = 0.001
   lj-pme-comb-rule               = Geometric
   ewald-geometry                 = 0
   epsilon-surface                = 0
   tcoupl                         = V-rescale
   nsttcouple                     = 10
   nh-chain-length                = 0
   print-nose-hoover-chain-variables = false
   pcoupl                         = Berendsen
   pcoupltype                     = Anisotropic
   nstpcouple                     = 10
   tau-p                          = 5
   compressibility (3x3):
      compressibility[    0]={ 2.50000e-06,  0.00000e+00,  0.00000e+00}
      compressibility[    1]={ 0.00000e+00,  2.50000e-06,  0.00000e+00}
      compressibility[    2]={ 0.00000e+00,  0.00000e+00,  2.50000e-05}
   ref-p (3x3):
      ref-p[    0]={ 1.01325e+00,  0.00000e+00,  0.00000e+00}
      ref-p[    1]={ 0.00000e+00,  1.01325e+00,  0.00000e+00}
      ref-p[    2]={ 0.00000e+00,  0.00000e+00,  1.01325e+00}
   refcoord-scaling               = COM
   posres-com (3):
      posres-com[0]= 0.00000e+00
      posres-com[1]= 0.00000e+00
      posres-com[2]= 0.00000e+00
   posres-comB (3):
      posres-comB[0]= 0.00000e+00
      posres-comB[1]= 0.00000e+00
      posres-comB[2]= 0.00000e+00
   QMMM                           = false
qm-opts:
   ngQM                           = 0
   constraint-algorithm           = Lincs
   continuation                   = false
   Shake-SOR                      = false
   shake-tol                      = 0.0001
   lincs-order                    = 4
   lincs-iter                     = 1
   lincs-warnangle                = 89
   nwall                          = 0
   wall-type                      = 9-3
   wall-r-linpot                  = -1
   wall-atomtype[0]               = -1
   wall-atomtype[1]               = -1
   wall-density[0]                = 0
   wall-density[1]                = 0
   wall-ewald-zfac                = 3
   pull                           = false
   awh                            = false
   rotation                       = false
   interactiveMD                  = false
   disre                          = No
   disre-weighting                = Conservative
   disre-mixed                    = false
   dr-fc                          = 1000
   dr-tau                         = 0
   nstdisreout                    = 100
   orire-fc                       = 0
   orire-tau                      = 0
   nstorireout                    = 100
   free-energy                    = no
   cos-acceleration               = 0
   deform (3x3):
      deform[    0]={ 0.00000e+00,  0.00000e+00,  0.00000e+00}
      deform[    1]={ 0.00000e+00,  0.00000e+00,  0.00000e+00}
      deform[    2]={ 0.00000e+00,  0.00000e+00,  0.00000e+00}
   simulated-tempering            = false
   swapcoords                     = no
   userint1                       = 0
   userint2                       = 0
   userint3                       = 0
   userint4                       = 0
   userreal1                      = 0
   userreal2                      = 0
   userreal3                      = 0
   userreal4                      = 0
   applied-forces:
     electric-field:
       x:
         E0                       = 0
         omega                    = 0
         t0                       = 0
         sigma                    = 0
       y:
         E0                       = 0
         omega                    = 0
         t0                       = 0
         sigma                    = 0
       z:
         E0                       = 0
         omega                    = 0
         t0                       = 0
         sigma                    = 0
     density-guided-simulation:
       active                     = false
       group                      = protein
       similarity-measure         = inner-product
       atom-spreading-weight      = unity
       force-constant             = 1e+09
       gaussian-transform-spreading-width = 0.2
       gaussian-transform-spreading-range-in-multiples-of-width = 4
       reference-density-filename = reference.mrc
       nst                        = 1
       normalize-densities        = true
       adaptive-force-scaling     = false
       adaptive-force-scaling-time-constant = 4
       shift-vector               =
       transformation-matrix      =
grpopts:
   nrdf:      267443
   ref-t:         443
   tau-t:         0.1
annealing:          No
annealing-npoints:           0
   acc:	           0           0           0
   nfreeze:           N           N           N
   energygrp-flags[  0]: 0

Changing nstlist from 10 to 100, rlist from 2.001 to 2.024

Initializing Domain Decomposition on 12 ranks
Dynamic load balancing: auto
Minimum cell size due to atom displacement: 0.037 nm
NOTE: Periodic molecules are present in this system. Because of this, the domain decomposition algorithm cannot easily determine the minimum cell size that it requires for treating bonded interactions. Instead, domain decomposition will assume that half the non-bonded cut-off will be a suitable lower bound.
Minimum cell size due to bonded interactions: 1.012 nm
Maximum distance for 5 constraints, at 120 deg. angles, all-trans: 0.218 nm
Estimated maximum distance required for P-LINCS: 0.218 nm
Scaling the initial minimum size with 1/0.8 (option -dds) = 1.25
Using 0 separate PME ranks, as there are too few total
 ranks for efficient splitting
Optimizing the DD grid for 12 cells with a minimum initial size of 1.265 nm
The maximum allowed number of cells is: X 7 Y 7 Z 11
Domain decomposition grid 1 x 4 x 3, separate PME ranks 0
PME domain decomposition: 1 x 12 x 1
Domain decomposition rank 0, coordinates 0 0 0

The initial number of communication pulses is: Y 1 Z 1
The initial domain decomposition cell size is: Y 2.38 nm Z 4.73 nm

The maximum allowed distance for atoms involved in interactions is:
                 non-bonded interactions           2.024 nm
(the following are initial values, they could change due to box deformation)
            two-body bonded interactions  (-rdd)   2.024 nm
          multi-body bonded interactions  (-rdd)   2.024 nm
  atoms separated by up to 5 constraints  (-rcon)  2.375 nm

When dynamic load balancing gets turned on, these settings will change to:
The maximum number of communication pulses is: Y 2 Z 2
The minimum size for domain decomposition cells is 1.012 nm
The requested allowed shrink of DD cells (option -dds) is: 0.80
The allowed shrink of domain decomposition cells is: Y 0.43 Z 0.21
The maximum allowed distance for atoms involved in interactions is:
                 non-bonded interactions           2.024 nm
            two-body bonded interactions  (-rdd)   2.024 nm
          multi-body bonded interactions  (-rdd)   1.012 nm
  atoms separated by up to 5 constraints  (-rcon)  1.012 nm

Using 12 MPI threads

Non-default thread affinity set, disabling internal thread affinity

Using 1 OpenMP thread per tMPI thread

System total charge: 0.000
Will do PME sum in reciprocal space for LJ dispersion interactions.

Using a Gaussian width (1/beta) of 0.596846 nm for LJ Ewald
Will do PME sum in reciprocal space for electrostatic interactions.

Using a Gaussian width (1/beta) of 0.859567 nm for Ewald
Potential shift: LJ r^-12: -2.441e-04 r^-6: -1.562e-05, Ewald -5.000e-04
Initialized non-bonded Ewald tables, spacing: 1.53e-03 size: 1310

Using shifted Lennard-Jones, switch between 0 and 2 nm
Generated table with 1512 data points for 1-4 COUL.
Tabscale = 500 points/nm
Generated table with 1512 data points for 1-4 LJ6.
Tabscale = 500 points/nm
Generated table with 1512 data points for 1-4 LJ12.
Tabscale = 500 points/nm
Long Range LJ corr.: <C6> 1.5527e-11

Using SIMD 4x8 nonbonded short-range kernels

Using a 4x8 pair-list setup:
  updated every 100 steps, buffer 0.024 nm, rlist 2.024 nm
At tolerance 0.001 kJ/mol/ps per atom, equivalent classical 1x1 list would be:
  updated every 100 steps, buffer 0.044 nm, rlist 2.044 nm

Initializing Parallel LINear Constraint Solver

The number of constraints is 56449
There are constraints between atoms in different decomposition domains,
will communicate selected coordinates each lincs iteration

Linking all bonded interactions to atoms

Intra-simulation communication will occur every 10 steps.

There are: 107965 Atoms
Atom distribution over 12 domains: av 8997 stddev 262 min 8511 max 9503

Constraining the starting coordinates (step 0)

Constraining the coordinates at t0-dt (step 0)
Center of mass motion removal mode is Linear
We have the following groups for center of mass motion removal:
  0:  rest
RMS relative constraint deviation after constraining: 6.27e-07
Initial temperature: 0.000240571 K

Started mdrun on rank 0 Tue Jun 11 12:19:13 2024

           Step           Time
              0        0.00000

   Energies (kJ/mol)
           Bond          Angle Ryckaert-Bell.  Improper Dih.          LJ-14
    1.39500e+05    3.03859e+05    7.82567e+01    3.31610e+01    1.17557e+04
     Coulomb-14        LJ (SR)  Disper. corr.   Coulomb (SR)   Coul. recip.
   -8.61024e+04   -1.95793e+05   -7.79582e-05   -5.98538e+06    1.14075e+03
      LJ recip.      Potential    Kinetic En.   Total Energy  Conserved En.
   -3.22029e+04   -5.84311e+06    8.96562e-01   -5.84311e+06   -5.84311e+06
    Temperature Pres. DC (bar) Pressure (bar)   Constr. rmsd
    8.06390e-04   -1.06526e-06   -3.33814e+03    1.36696e-06

	<====  A V E R A G E S  ====>

	Statistics over 10001 steps using 101 frames

   Energies (kJ/mol)
           Bond          Angle Ryckaert-Bell.  Improper Dih.          LJ-14
    2.39991e+05    4.83567e+05    3.81855e+04    2.47206e+02    1.63220e+04
     Coulomb-14        LJ (SR)  Disper. corr.   Coulomb (SR)   Coul. recip.
   -8.65817e+04   -1.73216e+05   -7.79082e-05   -5.98179e+06    1.01527e+03
      LJ recip.      Potential    Kinetic En.   Total Energy  Conserved En.
   -3.20427e+04   -5.49430e+06    3.97104e+05   -5.09720e+06   -5.84833e+06
    Temperature Pres. DC (bar) Pressure (bar)   Constr. rmsd
    3.57165e+02   -1.06390e-06   -8.58707e+02    0.00000e+00

          Box-X          Box-Y          Box-Z
    9.01398e+00    9.49876e+00    1.42044e+01

   Total Virial (kJ/mol)
    2.12914e+05   -3.38633e+04    1.90265e+03
   -3.38632e+04    2.11257e+05    4.37409e+03
    1.90272e+03    4.37403e+03    6.72282e+04

   Pressure (bar)
   -2.17684e+03    1.02210e+03   -6.28614e+01
    1.02210e+03   -2.11400e+03   -1.37973e+02
   -6.28635e+01   -1.37972e+02    1.71471e+03
