Input Parameters:
   integrator                     = md
   tinit                          = 0
   dt                             = 0.0005
   nsteps                         = 3000
   init-step                      = 0
   simulation-part                = 1
   mts                            = false
   comm-mode                      = Linear
   nstcomm                        = 100000
   bd-fric                        = 0
   ld-seed                        = 2080368413
   emtol                          = 10
   emstep                         = 0.01
   niter                          = 20
   fcstep                         = 0
   nstcgsteep                     = 1000
   nbfgscorr                      = 10
   rtpi                           = 0.05
   nstxout                        = 500
   nstvout                        = 0
   nstfout                        = 0
   nstlog                         = 100
   nstcalcenergy                  = 100
   nstenergy                      = 500
   nstxout-compressed             = 0
   compressed-x-precision         = 1000
   cutoff-scheme                  = Verlet
   nstlist                        = 10
   pbc                            = xyz
   periodic-molecules             = true
   verlet-buffer-tolerance        = 0.001
   rlist                          = 2.004
   coulombtype                    = Reaction-Field
   coulomb-modifier               = Potential-shift
   rcoulomb-switch                = 0
   rcoulomb                       = 2
   epsilon-r                      = 1
   epsilon-rf                     = inf
   vdw-type                       = Cut-off
   vdw-modifier                   = Potential-shift
   rvdw-switch                    = 0
   rvdw                           = 2
   DispCorr                       = EnerPres
   table-extension                = 1
   fourierspacing                 = 0.24
   fourier-nx                     = 0
   fourier-ny                     = 0
   fourier-nz                     = 0
   pme-order                      = 4
   ewald-rtol                     = 0.001
   ewald-rtol-lj                  = 0.001
   lj-pme-comb-rule               = Geometric
   ewald-geometry                 = 0
   epsilon-surface                = 0
   tcoupl                         = V-rescale
   nsttcouple                     = 10
   nh-chain-length                = 0
   print-nose-hoover-chain-variables = false
   pcoupl                         = Berendsen
   pcoupltype                     = Isotropic
   nstpcouple                     = 1
   tau-p                          = 1
   compressibility (3x3):
      compressibility[    0]={ 2.50000e-05,  0.00000e+00,  0.00000e+00}
      compressibility[    1]={ 0.00000e+00,  2.50000e-05,  0.00000e+00}
      compressibility[    2]={ 0.00000e+00,  0.00000e+00,  2.50000e-05}
   ref-p (3x3):
      ref-p[    0]={ 1.01325e+00,  0.00000e+00,  0.00000e+00}
      ref-p[    1]={ 0.00000e+00,  1.01325e+00,  0.00000e+00}
      ref-p[    2]={ 0.00000e+00,  0.00000e+00,  1.01325e+00}
   refcoord-scaling               = COM
   posres-com (3):
      posres-com[0]= 6.04363e-01
      posres-com[1]= 4.75387e-01
      posres-com[2]= 5.19476e-01
   posres-comB (3):
      posres-comB[0]= 6.04363e-01
      posres-comB[1]= 4.75387e-01
      posres-comB[2]= 5.19476e-01
   QMMM                           = false
qm-opts:
   ngQM                           = 0
   constraint-algorithm           = Lincs
   continuation                   = false
   Shake-SOR                      = false
   shake-tol                      = 0.0001
   lincs-order                    = 4
   lincs-iter                     = 1
   lincs-warnangle                = 30
   nwall                          = 0
   wall-type                      = 9-3
   wall-r-linpot                  = -1
   wall-atomtype[0]               = -1
   wall-atomtype[1]               = -1
   wall-density[0]                = 0
   wall-density[1]                = 0
   wall-ewald-zfac                = 3
   pull                           = false
   awh                            = false
   rotation                       = false
   interactiveMD                  = false
   disre                          = No
   disre-weighting                = Conservative
   disre-mixed                    = false
   dr-fc                          = 1000
   dr-tau                         = 0
   nstdisreout                    = 100
   orire-fc                       = 0
   orire-tau                      = 0
   nstorireout                    = 100
   free-energy                    = no
   cos-acceleration               = 0
   deform (3x3):
      deform[    0]={ 0.00000e+00,  0.00000e+00,  0.00000e+00}
      deform[    1]={ 0.00000e+00,  0.00000e+00,  0.00000e+00}
      deform[    2]={ 0.00000e+00,  0.00000e+00,  0.00000e+00}
   simulated-tempering            = false
   swapcoords                     = no
   userint1                       = 0
   userint2                       = 0
   userint3                       = 0
   userint4                       = 0
   userreal1                      = 0
   userreal2                      = 0
   userreal3                      = 0
   userreal4                      = 0
   applied-forces:
     electric-field:
       x:
         E0                       = 0
         omega                    = 0
         t0                       = 0
         sigma                    = 0
       y:
         E0                       = 0
         omega                    = 0
         t0                       = 0
         sigma                    = 0
       z:
         E0                       = 0
         omega                    = 0
         t0                       = 0
         sigma                    = 0
     density-guided-simulation:
       active                     = false
       group                      = protein
       similarity-measure         = inner-product
       atom-spreading-weight      = unity
       force-constant             = 1e+09
       gaussian-transform-spreading-width = 0.2
       gaussian-transform-spreading-range-in-multiples-of-width = 4
       reference-density-filename = reference.mrc
       nst                        = 1
       normalize-densities        = true
       adaptive-force-scaling     = false
       adaptive-force-scaling-time-constant = 4
       shift-vector               =
       transformation-matrix      =
grpopts:
   nrdf:      249317
   ref-t:         443
   tau-t:         0.1
annealing:          No
annealing-npoints:           0
   acc:	           0           0           0
   nfreeze:           N           N           N
   energygrp-flags[  0]: 0

Changing nstlist from 10 to 100, rlist from 2.004 to 2.204

Initializing Domain Decomposition on 12 ranks
Dynamic load balancing: auto
Minimum cell size due to atom displacement: 0.377 nm
NOTE: Periodic molecules are present in this system. Because of this, the domain decomposition algorithm cannot easily determine the minimum cell size that it requires for treating bonded interactions. Instead, domain decomposition will assume that half the non-bonded cut-off will be a suitable lower bound.
Minimum cell size due to bonded interactions: 1.102 nm
Maximum distance for 5 constraints, at 120 deg. angles, all-trans: 0.218 nm
Estimated maximum distance required for P-LINCS: 0.218 nm
Scaling the initial minimum size with 1/0.8 (option -dds) = 1.25
Optimizing the DD grid for 12 cells with a minimum initial size of 1.377 nm
The maximum allowed number of cells is: X 6 Y 6 Z 9
Domain decomposition grid 2 x 2 x 3, separate PME ranks 0
Domain decomposition rank 0, coordinates 0 0 0

The initial number of communication pulses is: X 1 Y 1 Z 1
The initial domain decomposition cell size is: X 4.44 nm Y 4.68 nm Z 4.43 nm

The maximum allowed distance for atoms involved in interactions is:
                 non-bonded interactions           2.204 nm
(the following are initial values, they could change due to box deformation)
            two-body bonded interactions  (-rdd)   2.204 nm
          multi-body bonded interactions  (-rdd)   2.204 nm
  atoms separated by up to 5 constraints  (-rcon)  4.434 nm

When dynamic load balancing gets turned on, these settings will change to:
The maximum number of communication pulses is: X 1 Y 1 Z 1
The minimum size for domain decomposition cells is 2.204 nm
The requested allowed shrink of DD cells (option -dds) is: 0.80
The allowed shrink of domain decomposition cells is: X 0.50 Y 0.47 Z 0.50
The maximum allowed distance for atoms involved in interactions is:
                 non-bonded interactions           2.204 nm
            two-body bonded interactions  (-rdd)   2.204 nm
          multi-body bonded interactions  (-rdd)   2.204 nm
  atoms separated by up to 5 constraints  (-rcon)  2.204 nm

Using 12 MPI threads

Non-default thread affinity set, disabling internal thread affinity

Using 1 OpenMP thread per tMPI thread

System total charge: 0.000
Reaction-Field:
epsRF = 0, rc = 2, krf = 0.0625, crf = 0.75, epsfac = 138.935
The electrostatics potential has its minimum at r = 2
Potential shift: LJ r^-12: -2.441e-04 r^-6: -1.562e-02
Generated table with 1602 data points for 1-4 COUL.
Tabscale = 500 points/nm
Generated table with 1602 data points for 1-4 LJ6.
Tabscale = 500 points/nm
Generated table with 1602 data points for 1-4 LJ12.
Tabscale = 500 points/nm
Long Range LJ corr.: <C6> 7.3657e-04

Using SIMD 4x8 nonbonded short-range kernels

Using a dual 4x8 pair-list setup updated with dynamic pruning:
  outer list: updated every 100 steps, buffer 0.204 nm, rlist 2.204 nm
  inner list: updated every   8 steps, buffer 0.001 nm, rlist 2.001 nm
At tolerance 0.001 kJ/mol/ps per atom, equivalent classical 1x1 list would be:
  outer list: updated every 100 steps, buffer 0.284 nm, rlist 2.284 nm
  inner list: updated every   8 steps, buffer 0.009 nm, rlist 2.009 nm

Using geometric Lennard-Jones combination rule

Initializing Parallel LINear Constraint Solver

The number of constraints is 52282
There are constraints between atoms in different decomposition domains,
will communicate selected coordinates each lincs iteration

Linking all bonded interactions to atoms

Intra-simulation communication will occur every 1 steps.

There are: 100534 Atoms
Atom distribution over 12 domains: av 8377 stddev 407 min 7771 max 8769

Constraining the starting coordinates (step 0)

Constraining the coordinates at t0-dt (step 0)
Center of mass motion removal mode is Linear
We have the following groups for center of mass motion removal:
  0:  rest
RMS relative constraint deviation after constraining: 6.42e-07
Initial temperature: 9.06224e-06 K

Started mdrun on rank 0 Tue Jun 11 12:24:42 2024

           Step           Time
              0        0.00000

   Energies (kJ/mol)
           Bond          Angle Ryckaert-Bell.  Improper Dih.          LJ-14
    1.52623e+05    2.95737e+05    2.65875e+03    1.70636e+01    9.83388e+03
     Coulomb-14        LJ (SR)  Disper. corr.   Coulomb (SR) Position Rest.
   -7.33708e+03   -2.01956e+05   -3.52203e+03   -5.98876e+06    9.99917e-01
      Potential    Kinetic En.   Total Energy  Conserved En.    Temperature
   -5.74070e+06    1.62014e+01   -5.74068e+06   -5.74068e+06    1.56313e-02
   -5.28613e+01   -2.37873e+03    1.50069e-06

	<====  A V E R A G E S  ====>

	Statistics over 1734 steps using 18 frames

   Energies (kJ/mol)
           Bond          Angle Ryckaert-Bell.  Improper Dih.          LJ-14
    2.18262e+05    4.29171e+05    3.75305e+04    7.36142e+01    1.34751e+04
     Coulomb-14        LJ (SR)  Disper. corr.   Coulomb (SR) Position Rest.
   -7.96011e+03   -1.83658e+05   -3.51344e+03   -5.98844e+06    3.17540e+02
      Potential    Kinetic En.   Total Energy  Conserved En.    Temperature
   -5.48474e+06    3.55750e+05   -5.12899e+06   -5.74050e+06    3.43232e+02
 Pres. DC (bar) Pressure (bar)   Constr. rmsd
   -5.26059e+01    5.66673e+02    0.00000e+00

          Box-X          Box-Y          Box-Z
    8.89619e+00    9.36685e+00    1.33122e+01

   Total Virial (kJ/mol)
    1.09630e+05   -3.45092e+04    7.39728e+02
   -3.45091e+04    1.02216e+05   -3.16664e+02
    7.39754e+02   -3.16664e+02    8.69010e+04

   Pressure (bar)
    2.64206e+02    1.04767e+03   -2.87284e+01
    1.04767e+03    4.82400e+02    6.43354e+00
   -2.87292e+01    6.43353e+00    9.53414e+02
